data/irish_network/psse/WinterPeak2022.raw
0,   100.00          / PSS/E-30.3    MON, NOV 18 2013  18:14
AITYTFS Winter Peak 2022/23

    10,'F_M         ',  38.0000,1,     0.000,     0.000,   2,   1,1.05896, -12.9808,   2
    11,'FMN LOOP    ',  38.0000,1,     0.000,     0.000,   2,   1,1.06837, -10.7847,   2
    12,'BEDFORD     ',  38.0000,1,     0.000,     0.000,   1,   1,1.06116, -12.8306,   2
    13,'M_R         ',  38.0000,1,     0.000,     0.000,   1,   1,1.05433, -12.2322,   2
    14,'F_I         ',  38.0000,1,     0.000,     0.000,   2,   1,1.04876, -12.3745,   2
    15,'I_M         ',  38.0000,1,     0.000,     0.000,   2,   1,1.07304, -12.6736,   2
  1021,'ARDNACRU    ', 110.0000,1,     0.000,     0.000,   4,   1,1.05000,  -5.6779,   1
  1041,'AGHADA      ', 110.0000,1,     0.000,     0.000,   3,   1,1.03877,  -1.5678,   1
  1042,'AGHADA      ', 220.0000,1,     0.000,     0.000,   3,   1,1.04000,   1.6708,   1
  1052,'AGHADA_B    ', 220.0000,1,     0.000,     0.000,   3,   1,1.04077,   1.5129,   1
  1061,'ARIGNA      ', 110.0000,1,     0.000,     0.000,   9,   1,1.05363,  -7.5171,   2
  1062,'AGH_AT14    ', 220.0000,1,     0.000,     0.000,   3,   1,1.04000,   1.6708,   1
  1071,'AGANNYGA    ', 110.0000,1,     0.000,     0.000,   4,   1,1.06114,  -4.1296,   1
  1072,'AGHT2102    ', 220.0000,1,     0.000,     0.000,   3,   1,1.03995,   1.6552,   1
  1081,'AHANE       ', 110.0000,1,     0.000,     0.000,   7,   1,1.04667,  -5.4526,   2
  1091,'ADAMSTOW    ', 110.0000,1,     0.000,     0.000,   1,   1,1.02861, -10.8906,   2
  1101,'ANNER       ', 110.0000,1,     0.000,     0.000,   5,   1,1.04163,  -8.0362,   5
  1121,'ARKLOW      ', 110.0000,1,     0.000,     0.000,   6,   1,1.05554,  -5.6875,   1
  1122,'ARKLOW      ', 220.0000,1,     0.000,     0.000,   6,   1,1.05538,  -4.5411,   1
  1131,'ATHEA       ', 110.0000,1,     0.000,     0.000,   7,   1,1.04990,   2.2280,   4
  1141,'ATHLONE     ', 110.0000,1,     0.000,     0.000,   9,   1,1.06168,  -6.9634,   1
  1151,'ATHEA-2     ', 110.0000,1,     0.000,     0.000,   7,   1,1.04990,   2.2280,   1
  1161,'AUGHINIS    ', 110.0000,1,     0.000,     0.000,   7,   1,1.05000,  -3.8840,   1
  1181,'ARVA        ', 110.0000,1,     0.000,     0.000,  10,   1,1.04345, -10.1705,   1
  1201,'ARTANE      ', 110.0000,1,     0.000,     0.000,   1,   1,1.06157,  -7.3191,   2
  1211,'BALLYVOU    ', 110.0000,1,     0.000,     0.000,   3,   1,1.04880,   2.1463,   1
  1212,'BALLYVOU    ', 220.0000,1,     0.000,     0.000,   3,   1,1.05501,   1.2302,   1
  1221,'ATHY        ', 110.0000,1,     0.000,     0.000,   8,   1,1.04947,  -6.4229,   1
  1231,'BALLYWAT    ', 110.0000,1,     0.000,     0.000,   6,   1,1.05000,  -5.4004,   4
  1251,'BOOLTIAG    ', 110.0000,1,     0.000,     0.000,   4,   1,1.05509,  -4.3574,   2
  1271,'BALTRASN    ', 110.0000,1,     0.000,     0.000,  10,   1,1.04221,  -8.5457,   1
  1281,'BALLYLIC    ', 110.0000,1,     0.000,     0.000,   3,   1,1.03941,  -3.7944,   2
  1301,'BALLYBEG    ', 110.0000,1,     0.000,     0.000,   6,   1,1.05321,  -6.3570,   1
  1311,'CORDAL      ', 110.0000,1,     0.000,     0.000,   3,   1,1.05219,   3.0584,   1
  1321,'BLAKE       ', 110.0000,1,     0.000,     0.000,   8,   1,1.04754,  -7.6792,   2
  1341,'BINBANE     ', 110.0000,1,     0.000,     0.000,   9,   1,1.03741,  -8.4346,   2
  1351,'BARODA      ', 110.0000,1,     0.000,     0.000,   8,   1,1.04585,  -8.1625,   1
  1361,'BALLYDIN    ', 110.0000,1,     0.000,     0.000,   5,   1,1.03668,  -7.5433,   1
  1381,'BARNAHEL    ', 110.0000,1,     0.000,     0.000,   3,   1,1.03575,  -2.2487,   1
  1391,'BARNAHEL    ', 110.0000,1,     0.000,     0.000,   3,   1,1.04629,  -2.6428,   1
  1400,'BELLACOR    ', 110.0000,1,     0.000,     0.000,   9,   1,1.06312,  -4.2755,   1
  1401,'BELLACOR    ', 110.0000,1,     0.000,     0.000,   9,   1,1.04202, -10.2777,   1
  1404,'BELLACOR    ', 380.0000,1,     0.000,     0.000,   9,   1,1.04229,  -4.2334,   1
  1421,'BLACKROC    ', 110.0000,1,     0.000,     0.000,   1,   1,1.04913,  -8.8619,   2
  1431,'BALLYRAG    ', 110.0000,1,     0.000,     0.000,   6,   1,1.04300,  -7.4414,   1
  1441,'BANDON      ', 110.0000,1,     0.000,     0.000,   3,   1,1.03145,  -4.3448,   1
  1451,'CLOGHRAN    ', 110.0000,1,     0.000,     0.000,   1,   1,1.05230,  -7.4244,   1
  1461,'BARRYMOR    ', 110.0000,1,     0.000,     0.000,   5,   1,1.03842,  -4.2100,   2
  1471,'BELCAMP     ', 110.0000,1,     0.000,     0.000,   1,   1,1.06003,  -7.1027,   2
  1472,'BELCAMP     ', 220.0000,1,     0.000,     0.000,   1,   1,1.07454,  -3.9732,   2
  1481,'BUTLERST    ', 110.0000,1,     0.000,     0.000,   5,   1,1.03636,  -6.1712,   1
  1492,'BALLAKEL    ', 220.0000,1,     0.000,     0.000,  10,   1,1.04070,  -5.6493,   1
  1501,'BRINNY      ', 110.0000,1,     0.000,     0.000,   3,   1,1.03125,  -4.3576,   5
  1511,'KNOCKNAG    ', 110.0000,1,     0.000,     0.000,   7,   1,1.05000,   2.5259,   1
  1541,'BANOGE      ', 110.0000,1,     0.000,     0.000,   6,   1,1.04764,  -5.9794,   1
  1551,'BOGGERAG    ', 110.0000,1,     0.000,     0.000,   3,   1,1.05000,   3.2587,   1
  1571,'ARDNAGAP    ', 110.0000,1,     0.000,     0.000,   9,   1,1.01670,  -9.6770,   2
  1581,'CABRA       ', 110.0000,1,     0.000,     0.000,   1,   1,1.06068,  -7.3827,   2
  1601,'CLASHAVO    ', 110.0000,1,     0.000,     0.000,   3,   1,1.04429,  -2.8589,   1
  1602,'CLASHAVO    ', 220.0000,1,     0.000,     0.000,   3,   1,1.05053,   0.6380,   1
  1611,'CLONKEEN    ', 110.0000,1,     0.000,     0.000,   7,   1,1.04230,  -4.3000,   1
  1621,'COOLROE     ', 110.0000,1,     0.000,     0.000,   3,   1,1.03926,  -3.3717,   1
  1631,'CORDERRY    ', 110.0000,1,     0.000,     0.000,   9,   1,1.05635,  -7.3108,   1
  1641,'CASHLA      ', 110.0000,1,     0.000,     0.000,   9,   1,1.06403,  -5.7084,   1
  1642,'CASHLA      ', 220.0000,1,     0.000,     0.000,   9,   1,1.06817,  -3.3669,   1
  1651,'CLAHANE     ', 110.0000,1,     0.000,     0.000,   7,   1,1.06699,  -4.4784,   1
  1661,'CASTLEBA    ', 110.0000,1,     0.000,     0.000,   9,   1,1.05000, -10.3286,   1
  1681,'CARRIGAD    ', 110.0000,1,     0.000,     0.000,   3,   1,1.04179,  -3.1341,   1
  1691,'CENTRAL     ', 110.0000,1,     0.000,     0.000,   1,   1,1.05088,  -8.7100,   1
  1701,'CATH_FAL    ', 110.0000,1,     0.000,     0.000,   9,   1,1.05000,  -7.6598,   1
  1711,'CROMCAST    ', 110.0000,1,     0.000,     0.000,   1,   1,1.05866,  -7.2026,   1
  1721,'CAHIR       ', 110.0000,1,     0.000,     0.000,   5,   1,1.05372,  -7.3461,   1
  1731,'CROMCAST    ', 110.0000,1,     0.000,     0.000,   1,   1,1.05866,  -7.2026,   1
  1741,'CARRICKM    ', 110.0000,1,     0.000,     0.000,   2,   1,1.05105,  -8.6653,   1
  1742,'CARRICKM    ', 220.0000,1,     0.000,     0.000,   2,   1,1.06418,  -5.0204,   1
  1761,'CLIFF       ', 110.0000,1,     0.000,     0.000,   9,   1,1.04999,  -7.4506,   1
  1781,'CASTLEFA    ', 110.0000,1,     0.000,     0.000,   7,   1,1.04960,  -3.9049,   5
  1791,'BRACKLON    ', 110.0000,1,     0.000,     0.000,   8,   1,1.04706,  -7.4042,   1
  1801,'COOKSTOW    ', 110.0000,1,     0.000,     0.000,   1,   1,1.05394,  -6.5532,   2
  1821,'CLOON       ', 110.0000,1,     0.000,     0.000,   9,   1,1.05226,  -7.5292,   1
  1831,'SCREEB      ', 110.0000,1,     0.000,     0.000,   9,   1,1.04211,  -7.2568,   2
  1841,'CRANE       ', 110.0000,1,     0.000,     0.000,   6,   1,1.04818,  -5.5914,   1
  1851,'CHERRYWO    ', 110.0000,1,     0.000,     0.000,   2,   1,1.04797,  -8.8271,   1
  1861,'CARICKON    ', 110.0000,1,     0.000,     0.000,   9,   1,1.05445,  -7.9572,   1
  1871,'COLLEGE     ', 110.0000,1,     0.000,     0.000,   2,   1,1.05469,  -7.2332,   1
  1881,'CHARLEVI    ', 110.0000,1,     0.000,     0.000,   3,   1,1.02248,  -6.1918,   1
  1891,'CAULSTOW    ', 110.0000,1,     0.000,     0.000,  10,   1,1.03138,  -9.5331,   1
  1901,'CARLOW      ', 110.0000,1,     0.000,     0.000,   6,   1,1.05141,  -6.2264,   1
  1911,'CUILLEEN    ', 110.0000,1,     0.000,     0.000,   9,   1,1.06172,  -6.9645,   1
  1921,'COW CROS    ', 110.0000,1,     0.000,     0.000,   3,   1,1.03474,  -2.3316,   1
  1931,'CUNGHILL    ', 110.0000,1,     0.000,     0.000,   9,   1,1.05085,  -8.5027,   4
  1941,'CUSHALIN    ', 110.0000,1,     0.000,     0.000,   8,   1,1.07500,  -4.6351,   1
  1951,'CARROWBE    ', 110.0000,1,     0.000,     0.000,   9,   1,1.03758, -11.2789,   1
  1961,'CASTLEVI    ', 110.0000,1,     0.000,     0.000,   3,   1,1.03462,  -2.6378,   1
  1971,'COOMAGEA    ', 110.0000,1,     0.000,     0.000,   7,   1,1.05000,   3.5398,   4
  1981,'CORRACLA    ', 110.0000,1,     0.000,     0.000,   9,   1,1.04675, -10.3778,   1
  1991,'CASTLEDO    ', 110.0000,1,     0.000,     0.000,   6,   1,1.05012,  -4.6571,   1
  2001,'CULLENAG    ', 110.0000,1,     0.000,     0.000,   5,   1,1.04076,  -5.6444,   1
  2002,'CULLENAG    ', 220.0000,1,     0.000,     0.000,   5,   1,1.04649,  -2.2664,   1
  2011,'KNOCKNAG    ', 110.0000,1,     0.000,     0.000,   3,   1,1.04179,  -3.1341,   1
  2021,'CITY WES    ', 110.0000,1,     0.000,     0.000,   1,   1,1.02628, -11.1486,   2
  2041,'CORDUFF     ', 110.0000,1,     0.000,     0.000,   2,   1,1.05525,  -7.1492,   1
  2042,'CORDUFF     ', 220.0000,1,     0.000,     0.000,   2,   1,1.07500,  -3.4877,   1
  2051,'BLACKPOO    ', 110.0000,1,     0.000,     0.000,   3,   1,1.03191,  -3.5963,   1
  2052,'CORDUFFB    ', 220.0000,1,     0.000,     0.000,   2,   1,1.07500,  -3.4877,   1
  2081,'DUNKETTL    ', 110.0000,4,     0.000,     0.000,   3,   1,1.00000,   0.0000,   5
  2090,'WEST GAL    ', 110.0000,1,     0.000,     0.000,   9,   1,1.05220,  -4.8748,   1
  2091,'WEST GAL    ', 110.0000,1,     0.000,     0.000,   9,   1,1.05020,  -6.6686,   1
  2101,'DUNDALK     ', 110.0000,1,     0.000,     0.000,  10,   1,1.03709,  -9.4207,   2
  2111,'UGOOL       ', 110.0000,1,     0.000,     0.000,   9,   1,1.05000,  -4.2190,   1
  2121,'DRUMLINE    ', 110.0000,1,     0.000,     0.000,   4,   1,1.04721,  -6.3290,   1
  2131,'DROMADA     ', 110.0000,1,     0.000,     0.000,   3,   1,1.05000,   2.3197,   1
  2141,'DUNGARVA    ', 110.0000,1,     0.000,     0.000,   5,   1,1.02543,  -6.0317,   1
  2161,'DOON        ', 110.0000,1,     0.000,     0.000,   5,   1,1.04245,  -7.9837,   1
  2181,'DRYBRIDG    ', 110.0000,1,     0.000,     0.000,  10,   1,1.03070,  -9.6598,   1
  2202,'DUNSTOWN    ', 220.0000,1,     0.000,     0.000,   2,   1,1.07339,  -4.0830,   1
  2204,'DUNSTOWN    ', 380.0000,1,     0.000,     0.000,   2,   1,1.05768,  -2.4867,   1
  2221,'DUNMANWA    ', 110.0000,1,     0.000,     0.000,   3,   1,1.03719,  -3.8453,   1
  2231,'DERRYBRI    ', 110.0000,1,     0.000,     0.000,   4,   1,1.06175,  -3.7196,   2
  2241,'DALLOW      ', 110.0000,1,     0.000,     0.000,   5,   1,1.06315,  -5.4394,   2
  2251,'DARDISTO    ', 110.0000,1,     0.000,     0.000,   1,   1,1.05877,  -7.1994,   2
  2261,'DERRYIRO    ', 110.0000,1,     0.000,     0.000,   8,   1,1.04348,  -7.7951,   1
  2281,'DALTON      ', 110.0000,1,     0.000,     0.000,   9,   1,1.04540,  -9.0213,   1
  2301,'DUNFIRTH    ', 110.0000,1,     0.000,     0.000,   8,   1,1.04661,  -8.0954,   2
  2321,'DRUMKEEN    ', 110.0000,1,     0.000,     0.000,   9,   1,1.04569,  -8.5577,   1
  2361,'ENNIS       ', 110.0000,1,     0.000,     0.000,   4,   1,1.04748,  -5.8630,   1
  2391,'KILL HIL    ', 110.0000,1,     0.000,     0.000,   5,   1,1.05726,  -6.9592,   1
  2401,'MOUNTLUC    ', 110.0000,1,     0.000,     0.000,   8,   1,1.05466,  -5.1557,   1
  2411,'KNOCKMUL    ', 110.0000,1,     0.000,     0.000,   6,   1,1.03895,  -5.9010,   1
  2481,'FASS EAS    ', 110.0000,1,     0.000,     0.000,   2,   1,1.04626,  -6.8141,   2
  2491,'FASS WES    ', 110.0000,1,     0.000,     0.000,   2,   1,1.04663,  -6.7973,   2
  2521,'FLAGFORD    ', 110.0000,1,     0.000,     0.000,   9,   1,1.05619,  -7.8165,   1
  2522,'FLAGFORD    ', 220.0000,1,     0.000,     0.000,   9,   1,1.07110,  -5.6359,   1
  2524,'FLAGFORD    ', 380.0000,1,     0.000,     0.000,   9,   1,1.03267,  -4.9574,   1
  2541,'FRN ST A    ', 110.0000,1,     0.000,     0.000,   1,   1,1.05941,  -8.2396,   2
  2551,'FRN ST B    ', 110.0000,1,     0.000,     0.000,   1,   1,1.05545,  -8.4083,   2
  2561,'FIN_URBA    ', 110.0000,1,     0.000,     0.000,   2,   1,1.06351,  -7.1294,   2
  2562,'FINGLAS     ', 220.0000,1,     0.000,     0.000,   2,   1,1.07500,  -3.6515,   1
  2563,'FINGLAS2    ', 220.0000,1,     0.000,     0.000,   2,   1,1.07500,  -3.6515,   1
  2571,'FIN_RURA    ', 110.0000,1,     0.000,     0.000,   2,   1,1.05868,  -7.1059,   2
  2581,'KILDONAN    ', 110.0000,1,     0.000,     0.000,   2,   1,1.05383,  -7.3224,   2
  2671,'GARVAGH     ', 110.0000,1,     0.000,     0.000,   9,   1,1.05622,  -7.1090,   4
  2681,'GILRA       ', 110.0000,1,     0.000,     0.000,   9,   1,1.05817,  -8.1019,   2
  2701,'GLASMORE    ', 110.0000,1,     0.000,     0.000,   1,   1,1.03316,  -8.4794,   2
  2721,'GRIFFINR    ', 110.0000,1,     0.000,     0.000,   2,   1,1.04769,  -7.7874,   2
  2731,'GLANLEE     ', 110.0000,1,     0.000,     0.000,   7,   1,1.04987,   3.5602,   4
  2741,'GREAT IS    ', 110.0000,1,     0.000,     0.000,   6,   1,1.04403,  -5.5006,   1
  2742,'GREAT IS    ', 220.0000,1,     0.000,     0.000,   6,   1,1.05000,  -1.8800,   1
  2744,'GREAT IS    ', 380.0000,1,     0.000,     0.000,   6,   1,1.06312,  -1.5472,   1
  2761,'GRANGE      ', 110.0000,1,     0.000,     0.000,   1,   1,1.05809,  -7.2294,   2
  2771,'GARROW      ', 110.0000,1,     0.000,     0.000,   7,   1,1.04907,   2.8543,   7
  2780,'GALWAY      ', 110.0000,1,     0.000,     0.000,   9,   1,1.05387,  -6.1387,   1
  2781,'GALWAY      ', 110.0000,1,     0.000,     0.000,   9,   1,1.05387,  -6.1387,   1
  2801,'GOLAGH      ', 110.0000,1,     0.000,     0.000,   9,   1,1.04766,  -7.7180,   4
  2821,'GORTAWEE    ', 110.0000,1,     0.000,     0.000,   9,   1,1.04514, -10.7720,   1
  2841,'GORMAN      ', 110.0000,1,     0.000,     0.000,  10,   1,1.02803,  -9.6102,   1
  2842,'GORMAN      ', 220.0000,1,     0.000,     0.000,  10,   1,1.04481,  -6.3428,   1
  2852,'GLANAGOW    ', 220.0000,1,     0.000,     0.000,   3,   1,1.04039,   1.6143,   1
  2861,'GRANGE C    ', 110.0000,1,     0.000,     0.000,   1,   1,1.02883, -10.8759,   2
  2870,'CLOGHER     ', 110.0000,1,     0.000,     0.000,   9,   1,1.04902,  -7.7070,   1
  2871,'CLOGHER     ', 110.0000,1,     0.000,     0.000,   9,   1,1.04902,  -7.7070,   1
  2881,'GLENLARA    ', 110.0000,1,     0.000,     0.000,   3,   1,1.01295,  -6.6588,   2
  2941,'HAROLDS     ', 110.0000,1,     0.000,     0.000,   1,   1,1.06024,  -8.2185,   2
  2951,'HEUSTON     ', 110.0000,1,     0.000,     0.000,   1,   1,1.05575,  -8.3889,   2
  2962,'HUNTSTOW    ', 220.0000,1,     0.000,     0.000,   2,   1,1.07537,  -3.5561,   4
  2972,'HUNTSTOW    ', 220.0000,1,     0.000,     0.000,   2,   1,1.07585,  -3.1955,   4
  2981,'HARTNETT    ', 110.0000,1,     0.000,     0.000,   3,   1,1.04070,  -3.1887,   2
  3061,'INISCARR    ', 110.0000,1,     0.000,     0.000,   3,   1,1.04094,  -3.2741,   1
  3081,'INCH_CIT    ', 110.0000,1,     0.000,     0.000,   2,   1,1.05628,  -8.3418,   2
  3082,'INCHICOR    ', 220.0000,1,     0.000,     0.000,   2,   1,1.06845,  -5.7413,   1
  3091,'INCH_COU    ', 110.0000,1,     0.000,     0.000,   2,   1,1.03410, -10.6494,   2
  3101,'IKERRIN     ', 110.0000,1,     0.000,     0.000,   5,   1,1.05640,  -6.8064,   2
  3122,'IRISHTOW    ', 220.0000,1,     0.000,     0.000,   2,   1,1.07138,  -4.7315,   1
  3190,'NORTH KE    ', 110.0000,1,     0.000,     0.000,   7,   1,1.06825,  -4.3104,   1
  3191,'NORTH KE    ', 110.0000,1,     0.000,     0.000,   7,   1,1.05315,   1.5850,   1
  3192,'NORTH KE    ', 220.0000,1,     0.000,     0.000,   7,   1,1.07030,   0.1491,   1
  3194,'NORTH KE    ', 380.0000,1,     0.000,     0.000,   7,   1,1.07439,   0.6156,   1
  3200,'KNOCKRAH    ', 110.0000,1,     0.000,     0.000,   3,   1,1.03885,  -2.4976,   1
  3201,'KNOCKRAH    ', 110.0000,1,     0.000,     0.000,   3,   1,1.03885,  -2.4976,   1
  3202,'KNOCKRAH    ', 220.0000,1,     0.000,     0.000,   3,   1,1.04513,   0.0299,   1
  3203,'KNOCKRAH    ', 220.0000,1,     0.000,     0.000,   3,   1,1.04112,  -0.2038,   1
  3204,'KNOCKRAH    ', 380.0000,1,     0.000,     0.000,   3,   1,1.05876,  -0.8017,   1
  3209,'KNOCKRAH    ', 110.0000,1,     0.000,     0.000,   3,   1,1.03885,  -2.4976,   1
  3211,'KNOCKAVA    ', 110.0000,1,     0.000,     0.000,   4,   1,1.06127,  -3.7860,   1
  3221,'KILBARRY    ', 110.0000,1,     0.000,     0.000,   3,   1,1.03195,  -3.5934,   1
  3241,'KILTEEL     ', 110.0000,1,     0.000,     0.000,   8,   1,1.04892,  -8.7760,   2
  3251,'REAMORE     ', 110.0000,1,     0.000,     0.000,   7,   1,1.06037,  -4.5231,   1
  3261,'KILKENNY    ', 110.0000,1,     0.000,     0.000,   6,   1,1.04285,  -7.7671,   1
  3281,'KILLONAN    ', 110.0000,1,     0.000,     0.000,   7,   1,1.04706,  -5.4140,   1
  3282,'KILLONAN    ', 220.0000,1,     0.000,     0.000,   7,   1,1.05532,  -3.2559,   1
  3301,'KNOCKERA    ', 110.0000,1,     0.000,     0.000,   7,   1,1.04072,  -5.2793,   1
  3321,'KNOCKUMB    ', 110.0000,1,     0.000,     0.000,  10,   1,1.01844, -10.2345,   5
  3330,'BALLYNAH    ', 110.0000,1,     0.000,     0.000,   3,   1,1.05110,   2.5985,   1
  3331,'BALLYNAH    ', 110.0000,1,     0.000,     0.000,   3,   1,1.05110,   2.5985,   1
  3332,'BALLYNAH    ', 220.0000,1,     0.000,     0.000,   3,   1,1.05863,   1.3147,   1
  3341,'KELLIS      ', 110.0000,1,     0.000,     0.000,   6,   1,1.05691,  -6.1220,   1
  3342,'KELLIS      ', 220.0000,1,     0.000,     0.000,   6,   1,1.04973,  -3.9824,   1
  3361,'KILTOY      ', 110.0000,1,     0.000,     0.000,   9,   1,1.04101,  -9.1723,   5
  3381,'KINNEGAD    ', 110.0000,1,     0.000,     0.000,   8,   1,1.04362,  -8.3653,   1
  3391,'KNOCKACU    ', 110.0000,1,     0.000,     0.000,   3,   1,1.05000,   3.6838,   1
...
0 / END OF BUS DATA, BEGIN LOAD DATA
    10,'LD',1,   2,   1,    78.110,    12.960,     0.000,     0.000,     0.000,     0.000,   2
    11,'LD',1,   2,   1,    48.430,     9.630,     0.000,     0.000,     0.000,     0.000,   2
    12,'LD',1,   1,   1,    63.740,    20.950,     0.000,     0.000,     0.000,     0.000,   2
    13,'LD',1,   1,   1,    53.220,    17.660,     0.000,     0.000,     0.000,     0.000,   2
    14,'LD',1,   2,   1,    55.190,    18.140,     0.000,     0.000,     0.000,     0.000,   2
    15,'LD',1,   2,   1,    72.050,    23.670,     0.000,     0.000,     0.000,     0.000,   2
  1041,'LD',1,   3,   1,     0.830,     0.480,     0.000,     0.000,     0.000,     0.000,   2
  1101,'I ',1,   5,   2,    11.000,     6.000,     0.000,     0.000,     0.000,     0.000,   5
  1101,'MI',1,   5,   2,     5.620,    -1.020,     0.000,     0.000,     0.000,     0.000,   5
  4341,'I ',1,   3,   2,     1.300,     0.390,     0.000,     0.000,     0.000,     0.000,   5
 10204,'LD',1,   4,   1,    32.210,    12.780,     0.000,     0.000,     0.000,     0.000,   2
 10205,'LD',1,   4,   1,    32.210,    12.780,     0.000,     0.000,     0.000,     0.000,   2
 10470,'HL',1,   3,   1,     8.750,     3.150,     0.000,     0.000,     0.000,     0.000,   1
 10471,'HL',0,   3,   1,    11.990,     4.310,     0.000,     0.000,     0.000,     0.000,   3
 10602,'LD',1,   9,   1,     3.700,     1.430,     0.000,     0.000,     0.000,     0.000,   2
 10801,'LD',1,   7,   1,     6.420,     1.330,     0.000,     0.000,     0.000,     0.000,   2
 10901,'I ',1,   1,   2,     9.500,     3.120,     0.000,     0.000,     0.000,     0.000,   5
 10901,'LD',1,   1,   1,     6.710,     2.180,     0.000,     0.000,     0.000,     0.000,   2
 11201,'LD',1,   6,   1,     7.080,     2.330,     0.000,     0.000,     0.000,     0.000,   2
 11204,'LD',1,   6,   1,    15.970,     5.300,     0.000,     0.000,     0.000,     0.000,   2
 11404,'LD',1,   9,   1,    68.140,    24.510,     0.000,     0.000,     0.000,     0.000,   2
 12001,'LD',1,   1,   1,    18.560,     2.120,     0.000,     0.000,     0.000,     0.000,   2
 12201,'LD',1,   8,   1,    18.900,     2.890,     0.000,     0.000,     0.000,     0.000,   2
 12702,'LD',1,  10,   1,    17.350,     1.370,     0.000,     0.000,     0.000,     0.000,   2
 12804,'LD',1,   3,   1,    13.500,     0.790,     0.000,     0.000,     0.000,     0.000,   2
 13001,'LD',1,   6,   1,    14.840,     2.200,     0.000,     0.000,     0.000,     0.000,   2
 13204,'LD',1,   8,   1,    13.170,     4.420,     0.000,     0.000,     0.000,     0.000,   2
 13404,'LD',1,   9,   1,    16.710,     4.440,     0.000,     0.000,     0.000,     0.000,   2
 13501,'I ',1,   8,   2,     9.500,     2.850,     0.000,     0.000,     0.000,     0.000,   5
 13501,'LD',1,   8,   1,    12.980,     4.150,     0.000,     0.000,     0.000,     0.000,   2
 13601,'I ',1,   5,   2,     5.290,     1.460,     0.000,     0.000,     0.000,     0.000,   5
 13601,'MI',1,   5,   2,     3.920,     1.300,     0.000,     0.000,     0.000,     0.000,   5
 13604,'LD',1,   5,   1,    14.350,     3.870,     0.000,     0.000,     0.000,     0.000,   2
 13802,'LD',1,   3,   1,    19.730,     8.050,     0.000,     0.000,     0.000,     0.000,   2
 13804,'LD',1,   3,   1,    15.950,     2.580,     0.000,     0.000,     0.000,     0.000,   2
 14004,'LD',1,   9,   1,     8.700,     2.830,     0.000,     0.000,     0.000,     0.000,   2
 14204,'LD',1,   1,   1,    51.810,     3.830,     0.000,     0.000,     0.000,     0.000,   2
 14304,'LD',1,   6,   1,    25.340,     8.310,     0.000,     0.000,     0.000,     0.000,   2
 14401,'LD',1,   3,   1,     5.660,     1.090,     0.000,     0.000,     0.000,     0.000,   2
 14404,'LD',1,   3,   1,    38.760,    13.520,     0.000,     0.000,     0.000,     0.000,   2
 14502,'I ',1,   1,   2,    23.750,     7.800,     0.000,     0.000,     0.000,     0.000,   5
 14604,'LD',1,   5,   1,    27.260,     7.910,     0.000,     0.000,     0.000,     0.000,   2
 14804,'LD',1,   5,   1,    44.490,     9.050,     0.000,     0.000,     0.000,     0.000,   2
 14902,'HL',0,  10,   1,     4.940,     1.780,     0.000,     0.000,     0.000,     0.000,   1
 15001,'I ',1,   3,   2,     4.590,     1.700,     0.000,     0.000,     0.000,     0.000,   5
 15001,'MI',1,   3,   2,     1.580,     0.150,     0.000,     0.000,     0.000,     0.000,   5
 15402,'LD',1,   6,   1,    16.300,     5.360,     0.000,     0.000,     0.000,     0.000,   2
 15704,'LD',1,   9,   1,    15.430,     5.120,     0.000,     0.000,     0.000,     0.000,   2
 15801,'LD',1,   1,   1,    15.690,     4.000,     0.000,     0.000,     0.000,     0.000,   2
 16202,'LD',1,   3,   1,    12.060,     0.980,     0.000,     0.000,     0.000,     0.000,   2
 16604,'LD',1,   9,   1,    30.840,     7.270,     0.000,     0.000,     0.000,     0.000,   2
 16901,'LD',1,   1,   1,     6.510,     1.940,     0.000,     0.000,     0.000,     0.000,   2
 17004,'LD',1,   9,   1,    21.970,     7.230,     0.000,     0.000,     0.000,     0.000,   2
 17204,'LD',1,   5,   1,    25.970,     5.070,     0.000,     0.000,     0.000,     0.000,   2
 17404,'LD',1,   2,   1,    87.060,    14.250,     0.000,     0.000,     0.000,     0.000,   2
 17802,'I ',1,   7,   2,    49.000,    14.700,     0.000,     0.000,     0.000,     0.000,   5
 17901,'LD',1,   8,   1,    13.500,     4.470,     0.000,     0.000,     0.000,     0.000,   2
 18001,'LD',1,   1,   1,     4.150,     1.350,     0.000,     0.000,     0.000,     0.000,   2
 18004,'LD',1,   1,   1,    85.600,    23.130,     0.000,     0.000,     0.000,     0.000,   2
 18204,'LD',1,   9,   1,    33.140,    11.070,     0.000,     0.000,     0.000,     0.000,   2
 18304,'LD',1,   9,   1,    14.540,     4.780,     0.000,     0.000,     0.000,     0.000,   2
 18402,'LD',1,   6,   1,    17.410,     4.210,     0.000,     0.000,     0.000,     0.000,   2
 18404,'LD',1,   6,   1,    19.970,     5.590,     0.000,     0.000,     0.000,     0.000,   2
 18504,'I ',1,   2,   2,    19.000,     6.240,     0.000,     0.000,     0.000,     0.000,   5
 18504,'LD',1,   2,   1,    27.620,     9.080,     0.000,     0.000,     0.000,     0.000,   2
 18604,'LD',1,   9,   1,    34.040,     7.000,     0.000,     0.000,     0.000,     0.000,   2
 18701,'LD',1,   2,   1,    24.600,     4.550,     0.000,     0.000,     0.000,     0.000,   2
 18804,'LD',1,   3,   1,    21.100,     6.270,     0.000,     0.000,     0.000,     0.000,   2
 18901,'HL',0,  10,   1,     0.980,     0.350,     0.000,     0.000,     0.000,     0.000,   1
 19004,'LD',1,   6,   1,    57.630,    15.590,     0.000,     0.000,     0.000,     0.000,   2
 19204,'LD',1,   3,   1,    14.570,     3.590,     0.000,     0.000,     0.000,     0.000,   2
 19471,'HL',1,   8,   1,    11.970,     4.300,     0.000,     0.000,     0.000,     0.000,   4
 19504,'LD',1,   9,   1,    23.890,     5.190,     0.000,     0.000,     0.000,     0.000,   2
 19601,'LD',1,   3,   1,    24.180,     5.780,     0.000,     0.000,     0.000,     0.000,   2
 20201,'LD',1,   1,   1,    25.520,     8.310,     0.000,     0.000,     0.000,     0.000,   2
 20501,'LD',1,   3,   1,    20.770,     6.540,     0.000,     0.000,     0.000,     0.000,   2
 21004,'LD',1,  10,   1,    48.090,     8.030,     0.000,     0.000,     0.000,     0.000,   2
 21202,'LD',1,   4,   1,    11.210,     3.630,     0.000,     0.000,     0.000,     0.000,   2
 21204,'LD',1,   4,   1,    18.590,     4.160,     0.000,     0.000,     0.000,     0.000,   2
 21404,'LD',1,   5,   1,    46.480,     9.630,     0.000,     0.000,     0.000,     0.000,   2
 21604,'LD',1,   5,   1,    29.400,     7.230,     0.000,     0.000,     0.000,     0.000,   2
 21804,'LD',1,  10,   1,    87.310,    20.650,     0.000,     0.000,     0.000,     0.000,   2
 22204,'LD',1,   3,   1,    35.060,     8.950,     0.000,     0.000,     0.000,     0.000,   2
 22404,'LD',1,   5,   1,    19.050,     4.540,     0.000,     0.000,     0.000,     0.000,   2
 22501,'I ',1,   1,   2,    10.450,     3.434,     0.000,     0.000,     0.000,     0.000,   5
 22671,'HL',0,   8,   1,     0.300,     0.100,     0.000,     0.000,     0.000,     0.000,   1
 22672,'HL',0,   8,   1,     0.300,     0.100,     0.000,     0.000,     0.000,     0.000,   1
 22804,'LD',1,   9,   1,    26.690,     6.800,     0.000,     0.000,     0.000,     0.000,   2
 23001,'LD',1,   8,   1,    10.160,     0.690,     0.000,     0.000,     0.000,     0.000,   2
 23604,'LD',1,   4,   1,    64.570,    14.100,     0.000,     0.000,     0.000,     0.000,   2
 24104,'LD',1,   6,   1,    16.770,     5.500,     0.000,     0.000,     0.000,     0.000,   2
 24804,'LD',1,   2,   1,    62.550,    23.710,     0.000,     0.000,     0.000,     0.000,   2
 25604,'LD',1,   2,   1,    82.110,    16.040,     0.000,     0.000,     0.000,     0.000,   2
 26802,'I ',1,   9,   2,    10.440,     3.130,     0.000,     0.000,     0.000,     0.000,   5
 26802,'MI',1,   9,   2,     0.060,     0.020,     0.000,     0.000,     0.000,     0.000,   5
 27004,'LD',1,   1,   1,    76.440,    26.820,     0.000,     0.000,     0.000,     0.000,   2
 27204,'LD',1,   2,   1,    70.270,    22.100,     0.000,     0.000,     0.000,     0.000,   2
 27404,'LD',1,   6,   1,     2.010,     1.080,     0.000,     0.000,     0.000,     0.000,   2
 27474,'HL',1,   6,   1,     6.330,     2.280,     0.000,     0.000,     0.000,     0.000,   1
 27604,'LD',1,   1,   1,    60.720,    18.050,     0.000,     0.000,     0.000,     0.000,   2
 27801,'LD',1,   9,   1,    22.640,     6.800,     0.000,     0.000,     0.000,     0.000,   2
 27804,'LD',1,   9,   1,    72.030,    21.660,     0.000,     0.000,     0.000,     0.000,   2
 28201,'I ',1,   9,   2,    20.900,     6.270,     0.000,     0.000,     0.000,     0.000,   5
 28204,'LD',1,   9,   1,    12.060,     3.420,     0.000,     0.000,     0.000,     0.000,   2
 28571,'HL',1,   3,   1,     4.200,     1.510,     0.000,     0.000,     0.000,     0.000,   1
 28601,'I ',1,   1,   2,     9.000,     2.700,     0.000,     0.000,     0.000,     0.000,   5
 28601,'LD',1,   1,   1,    11.650,     1.420,     0.000,     0.000,     0.000,     0.000,   2
 28604,'LD',1,   1,   1,    54.020,     9.270,     0.000,     0.000,     0.000,     0.000,   2
 28611,'I ',1,   1,   2,     9.000,     2.700,     0.000,     0.000,     0.000,     0.000,   5
 28804,'LD',1,   3,   1,    18.220,     4.380,     0.000,     0.000,     0.000,     0.000,   2
 29401,'LD',1,   1,   1,    17.980,     5.600,     0.000,     0.000,     0.000,     0.000,   2
 29501,'LD',1,   1,   1,     5.920,     1.870,     0.000,     0.000,     0.000,     0.000,   2
 29672,'HL',1,   2,   1,     6.690,     2.410,     0.000,     0.000,     0.000,     0.000,   4
 29801,'LD',1,   3,   1,     9.250,     3.010,     0.000,     0.000,     0.000,     0.000,   2
 30804,'LD',1,   2,   1,    53.040,    17.520,     0.000,     0.000,     0.000,     0.000,   2
 31004,'LD',1,   5,   1,    28.720,     8.540,     0.000,     0.000,     0.000,     0.000,   2
 31271,'HL',1,   2,   1,     5.890,     2.120,     0.000,     0.000,     0.000,     0.000,   4
 32201,'LD',1,   3,   1,    17.700,     2.740,     0.000,     0.000,     0.000,     0.000,   2
 32204,'LD',1,   3,   1,    59.280,     8.020,     0.000,     0.000,     0.000,     0.000,   2
 32404,'LD',1,   8,   1,    35.630,    14.120,     0.000,     0.000,     0.000,     0.000,   2
 32604,'LD',1,   6,   1,    56.360,    22.310,     0.000,     0.000,     0.000,     0.000,   2
 33004,'LD',1,   7,   1,    36.030,     8.500,     0.000,     0.000,     0.000,     0.000,   2
 33201,'I ',1,  10,   2,    23.000,     6.900,     0.000,     0.000,     0.000,     0.000,   5
 33201,'MI',1,  10,   2,     6.440,     1.930,     0.000,     0.000,     0.000,     0.000,   5
 33801,'I ',1,   8,   2,    10.220,     3.060,     0.000,     0.000,     0.000,     0.000,   5
 33801,'MI',1,   8,   2,     1.500,     0.450,     0.000,     0.000,     0.000,     0.000,   5
 34001,'LD',1,   5,   1,    14.180,     3.570,     0.000,     0.000,     0.000,     0.000,   2
 34201,'LD',1,   1,   1,    22.840,     6.230,     0.000,     0.000,     0.000,     0.000,   2
 34301,'I ',1,   1,   2,    23.750,     7.120,     0.000,     0.000,     0.000,     0.000,   5
 35004,'LD',1,   9,   1,    13.220,     4.710,     0.000,     0.000,     0.000,     0.000,   2
 35074,'HL',1,   9,   1,     9.270,     3.330,     0.000,     0.000,     0.000,     0.000,   3
 35404,'LD',1,   7,   1,    80.010,    14.020,     0.000,     0.000,     0.000,     0.000,   2
 35604,'LD',1,  10,   1,    29.560,     7.410,     0.000,     0.000,     0.000,     0.000,   2
 35804,'LD',1,   9,   1,    67.630,    12.900,     0.000,     0.000,     0.000,     0.000,   2
 36001,'LD',1,   3,   1,    24.690,     6.620,     0.000,     0.000,     0.000,     0.000,   2
 36201,'I ',1,   5,   2,    16.600,     3.600,     0.000,     0.000,     0.000,     0.000,   5
 36201,'MI',1,   5,   2,     2.390,     2.100,     0.000,     0.000,     0.000,     0.000,   5
 37501,'LD',1,   1,   1,    21.000,     2.920,     0.000,     0.000,     0.000,     0.000,   2
 37601,'LD',1,   1,   1,    28.080,     5.530,     0.000,     0.000,     0.000,     0.000,   2
 37602,'I ',1,   1,   2,     5.000,     1.500,     0.000,     0.000,     0.000,     0.000,   5
 37602,'MI',1,   1,   2,     5.440,     1.630,     0.000,     0.000,     0.000,     0.000,   5
 38001,'LD',1,   3,   1,    16.140,     2.470,     0.000,     0.000,     0.000,     0.000,   2
 38004,'LD',1,   3,   1,    20.340,     4.660,     0.000,     0.000,     0.000,     0.000,   2
 38204,'LD',1,  10,   1,    51.750,    21.190,     0.000,     0.000,     0.000,     0.000,   2
 38601,'LD',1,   1,   1,     9.630,     1.540,     0.000,     0.000,     0.000,     0.000,   2
 38701,'LD',1,   1,   1,    13.610,     3.530,     0.000,     0.000,     0.000,     0.000,   2
 38804,'LD',1,   3,   1,     9.580,    -0.250,     0.000,     0.000,     0.000,     0.000,   2
 39471,'HL',1,   4,   1,    19.230,     6.920,     0.000,     0.000,     0.000,     0.000,   3
 39472,'HL',1,   4,   1,    19.230,     6.920,     0.000,     0.000,     0.000,     0.000,   3
 39473,'HL',1,   4,   1,    19.230,     6.920,     0.000,     0.000,     0.000,     0.000,   3
 39601,'LD',1,   3,   1,    17.730,     5.190,     0.000,     0.000,     0.000,     0.000,   2
 39675,'HL',0,   3,   1,     5.000,     1.800,     0.000,     0.000,     0.000,     0.000,   3
 39801,'I ',1,   7,   2,    22.000,     6.600,     0.000,     0.000,     0.000,     0.000,   5
 39801,'MI',1,   7,   2,     1.500,     0.450,     0.000,     0.000,     0.000,     0.000,   5
 40001,'LD',1,   9,   1,    14.800,     4.670,     0.000,     0.000,     0.000,     0.000,   2
 40004,'LD',1,   9,   1,    39.590,     9.700,     0.000,     0.000,     0.000,     0.000,   2
 40204,'LD',1,   3,   1,    23.810,     6.150,     0.000,     0.000,     0.000,     0.000,   2
 40404,'LD',1,   9,   1,    29.320,     5.180,     0.000,     0.000,     0.000,     0.000,   2
 40602,'I ',1,  10,   2,     5.180,     1.550,     0.000,     0.000,     0.000,     0.000,   5
 40602,'MI',1,  10,   2,     2.420,     0.730,     0.000,     0.000,     0.000,     0.000,   5
 40604,'LD',1,  10,   1,    30.580,    10.040,     0.000,     0.000,     0.000,     0.000,   2
 40801,'LD',1,   8,   1,    13.090,     2.280,     0.000,     0.000,     0.000,     0.000,   2
 41002,'I ',1,   1,   2,    18.000,     5.900,     0.000,     0.000,     0.000,     0.000,   5
 41102,'I ',1,   1,   2,    24.000,    11.630,     0.000,     0.000,     0.000,     0.000,   5
 42004,'LD',1,   8,   1,    29.660,     5.600,     0.000,     0.000,     0.000,     0.000,   2
 42102,'LD',1,   1,   1,    15.680,     2.450,     0.000,     0.000,     0.000,     0.000,   2
 42204,'LD',1,  10,   1,    73.700,    17.260,     0.000,     0.000,     0.000,     0.000,   2
 42501,'HL',0,   6,   1,     3.970,     1.430,     0.000,     0.000,     0.000,     0.000,   1
 42604,'LD',1,   7,   1,    29.590,     9.760,     0.000,     0.000,     0.000,     0.000,   2
 42802,'I ',1,   1,   2,    26.000,     7.800,     0.000,     0.000,     0.000,     0.000,   5
 43604,'LD',1,   7,   1,    28.150,     5.440,     0.000,     0.000,     0.000,     0.000,   2
 44001,'LD',1,   1,   1,    24.360,     2.830,     0.000,     0.000,     0.000,     0.000,   2
 44802,'LD',1,   8,   1,     9.860,     3.220,     0.000,     0.000,     0.000,     0.000,   2
 44804,'LD',1,   8,   1,    32.730,     8.450,     0.000,     0.000,     0.000,     0.000,   2
 44901,'LD',1,   1,   1,    21.710,     2.220,     0.000,     0.000,     0.000,     0.000,   2
 45001,'I ',1,  10,   2,    29.000,     9.100,     0.000,     0.000,     0.000,     0.000,   5
 45001,'MI',1,  10,   2,     3.290,     0.580,     0.000,     0.000,     0.000,     0.000,   5
 45101,'LD',1,   1,   1,    16.030,     2.290,     0.000,     0.000,     0.000,     0.000,   2
 46102,'I ',1,   7,   2,    61.000,    18.300,     0.000,     0.000,     0.000,     0.000,   5
 46210,'I ',1,   2,   2,    34.840,    10.450,     0.000,     0.000,     0.000,     0.000,   5
 46214,'I ',1,   2,   2,    34.840,    10.450,     0.000,     0.000,     0.000,     0.000,   5
 46224,'I ',1,   2,   2,    34.840,    10.450,     0.000,     0.000,     0.000,     0.000,   5
 46501,'LD',1,   1,   1,     0.960,     0.310,     0.000,     0.000,     0.000,     0.000,   2
 46511,'HL',1,   1,   1,     9.360,     3.360,     0.000,     0.000,     0.000,     0.000,   1
 46804,'LD',1,   7,   1,    26.500,     7.620,     0.000,     0.000,     0.000,     0.000,   2
 47004,'LD',1,   9,   1,    34.350,    10.320,     0.000,     0.000,     0.000,     0.000,   2
 47402,'I ',1,   2,   2,    15.200,     4.560,     0.000,     0.000,     0.000,     0.000,   5
 47601,'LD',1,   3,   1,     5.100,     1.180,     0.000,     0.000,     0.000,     0.000,   2
 49001,'I ',1,   6,   2,     2.290,     0.680,     0.000,     0.000,     0.000,     0.000,   5
 49474,'HL',1,   5,   1,    13.240,     4.760,     0.000,     0.000,     0.000,     0.000,   3
 49501,'LD',1,   9,   1,    28.190,     3.430,     0.000,     0.000,     0.000,     0.000,   2
 49504,'LD',1,   9,   1,    27.000,     7.680,     0.000,     0.000,     0.000,     0.000,   2
 49604,'LD',1,  10,   1,    60.980,    18.400,     0.000,     0.000,     0.000,     0.000,   2
 49804,'LD',1,   9,   1,    65.250,    14.260,     0.000,     0.000,     0.000,     0.000,   2
 50004,'LD',1,   9,   1,    23.820,     6.310,     0.000,     0.000,     0.000,     0.000,   2
 50276,'HL',1,   2,   1,     8.820,     3.170,     0.000,     0.000,     0.000,     0.000,   3
 50301,'LD',1,   1,   1,    13.500,     4.430,     0.000,     0.000,     0.000,     0.000,   2
 50573,'HL',1,   7,   1,     0.980,     0.350,     0.000,     0.000,     0.000,     0.000,   4
 50574,'HL',1,   7,   1,     0.980,     0.350,     0.000,     0.000,     0.000,     0.000,   4
 50604,'LD',1,   6,   1,    23.070,     5.140,     0.000,     0.000,     0.000,     0.000,   2
...
0 / END OF LOAD DATA, BEGIN GENERATOR DATA
 10271,'1 ',    21.000,     9.669,    15.000,    -7.000,1.05000,  1021,    34.000,   0.00000,   0.22000,   0.00000,   0.00000,1.00000,1,   15.0,    21.000,     5.000,   3,1.0000
 10272,'2 ',    22.000,     9.669,    15.000,    -7.000,1.05000,  1021,    34.000,   0.00000,   0.22000,   0.00000,   0.00000,1.00000,1,   15.0,    22.000,     5.000,   3,1.0000
 10273,'3 ',    19.000,     9.669,    15.000,    -7.000,1.05000,  1021,    34.000,   0.00000,   0.22000,   0.00000,   0.00000,1.00000,1,   15.0,    19.000,     5.000,   3,1.0000
 10274,'4 ',    24.000,     9.669,    15.000,    -7.000,1.05000,  1021,    34.000,   0.00000,   0.22000,   0.00000,   0.00000,1.00000,1,   15.0,    24.000,     5.000,   3,1.0000
 10275,'3 ',     2.296,     0.000,     0.000,     0.000,1.05000,     0,     8.350,   0.00920,   0.16210,   0.00000,   0.00000,1.00000,1,    2.3,     7.500,     0.000,   7,1.0000
 10276,'2 ',     0.202,     0.000,     0.000,     0.000,1.05000,     0,     0.850,   0.00730,   0.13500,   0.00000,   0.00000,1.00000,1,    0.2,     0.660,     0.000,   7,1.0000
 10470,'1 ',   330.000,   -50.309,   270.000,  -170.000,1.04000,  1062,   500.000,   0.00270,   0.18000,   0.00000,   0.00000,1.00000,1,  250.0,   443.000,   222.000,   1,1.0000
 10471,'1 ',   270.000,     0.000,   159.000,   -75.000,1.07500,  1062,   318.800,   0.00000,   0.22500,   0.00000,   0.00000,1.00000,0,  153.0,   270.000,    40.000,   3,1.0000
 10472,'11',    90.000,     0.000,    60.000,   -30.000,1.07500,  1062,   100.900,   0.00000,   0.12500,   0.00000,   0.00000,1.00000,0,   60.0,    90.000,    13.000,   3,1.0000
 10473,'12',    90.000,     0.000,    60.000,   -30.000,1.07500,  1062,   100.900,   0.00000,   0.12500,   0.00000,   0.00000,1.00000,0,   60.0,    90.000,    13.000,   3,1.0000
 10474,'14',    90.000,     0.000,    60.000,   -30.000,1.07500,  1062,   100.900,   0.00000,   0.12500,   0.00000,   0.00000,1.00000,0,   60.0,    90.000,    13.000,   3,1.0000
 10671,'2 ',     1.469,    -1.940,    -1.940,    -1.940,1.04000,     0,     4.800,   0.02040,   0.33060,   0.00000,   0.00000,1.00000,1,    1.5,     4.800,     0.000,   7,1.0000
 10672,'3 ',     1.531,    -2.000,    -2.000,    -2.000,1.04000,     0,     6.000,   0.02040,   0.33060,   0.00000,   0.00000,1.00000,1,    1.6,     5.000,     0.000,   7,1.0000
 10673,'1 ',     0.367,    -0.480,    -0.480,    -0.480,1.05000,     0,     1.200,   0.02040,   0.33060,   0.00000,   0.00000,1.00000,1,    0.4,     1.200,     0.000,   7,1.0000
 10674,'5 ',     1.408,    -1.817,    -1.770,    -2.300,1.04000,     0,     4.600,   0.02570,   0.73700,   0.00000,   0.00000,1.00000,1,    1.7,     4.600,     0.000,   7,1.0000
 11204,'1 ',     1.000,     0.000,     0.000,     0.000,1.00000,     0,     1.600,   0.00000,   0.20000,   0.01000,   0.06000,1.00000,0,  100.0,     1.000,     0.000,   2,1.0000
 11271,'1 ',     7.714,     0.000,     0.000,     0.000,1.04000,     0,    28.000,   0.00320,   0.12400,   0.00000,   0.00000,1.00000,1,    7.9,    25.200,     0.000,   7,1.0000
 11370,'1 ',     6.734,    -3.203,     5.590,    -5.590,1.05000,  2131,    30.000,   0.00000,   0.57860,   0.00000,   0.00000,1.00000,1,    5.7,    22.000,     0.000,   7,1.0000
 11371,'1 ',    15.611,   -11.237,    20.000,   -20.000,1.05000,  2131,    66.000,   0.00000,   0.57860,   0.00000,   0.00000,1.00000,1,   20.0,    51.000,     0.000,   7,1.0000
 11374,'DW',     1.224,    -0.697,     1.310,    -1.310,1.05000,  2131,     4.000,   0.00900,   0.14800,   0.00000,   0.00000,1.00000,1,    1.2,     4.000,     0.000,   7,1.0000
 11375,'DW',     1.102,    -0.629,     1.180,    -1.180,1.05000,  2131,     4.000,   0.00900,   0.14800,   0.00000,   0.00000,1.00000,1,    1.1,     3.600,     0.000,   7,1.0000
 12371,'1 ',     9.642,    -5.240,     7.000,    -7.000,1.05000,  1231,    32.000,   0.02570,   0.73700,   0.00000,   0.00000,1.00000,1,    7.0,    31.500,     0.000,   7,1.0000
 12372,'2 ',     3.214,     0.000,     0.000,     0.000,1.05000,  1231,    10.000,   0.02570,   0.73700,   0.00000,   0.00000,1.00000,1,    3.5,    10.500,     0.000,   7,1.0000
 12571,'1 ',     5.954,     0.000,     0.000,     0.000,1.05000,  1251,    25.050,   0.00920,   0.16210,   0.00000,   0.00000,1.00000,1,    6.4,    19.450,     0.000,   7,1.0000
 12572,'TW',     0.918,    -0.990,     0.990,    -0.990,1.05000,  1251,     3.340,   0.00920,   0.16210,   0.00000,   0.00000,1.00000,1,    1.0,     3.000,     0.000,   7,1.0000
 12573,'TW',     2.755,    -2.960,     2.960,    -2.960,1.05000,  1251,    10.020,   0.00920,   0.16210,   0.00000,   0.00000,1.00000,1,    3.0,     9.000,     0.000,   7,1.0000
 12871,'DW',     0.704,     0.000,     0.000,    -0.660,1.05000,  1281,     2.300,   0.02570,   0.73700,   0.00000,   0.00000,1.00000,1,    0.6,     2.300,     0.000,   7,1.0000
 12872,'DW',     2.571,     0.000,     0.000,    -2.760,1.05000,  1281,     9.200,   0.02570,   0.73700,   0.00000,   0.00000,1.00000,1,    2.6,     8.400,     0.000,   7,1.0000
 12873,'1 ',     5.984,     0.000,     0.000,     0.000,1.05000,  1281,    20.700,   0.02570,   0.73700,   0.00000,   0.00000,1.00000,1,    6.1,    19.550,     0.000,   7,1.0000
 12874,'1 ',     2.602,     0.000,     0.000,     0.000,1.05000,  1281,     8.500,   0.00210,   0.08600,   0.00000,   0.00000,1.00000,1,    2.7,     8.500,     0.000,   7,1.0000
 13170,'1 ',     7.331,     0.000,     0.000,     0.000,1.05000,  1311,    25.300,   0.02570,   0.73700,   0.00000,   0.00000,1.00000,1,    4.6,    23.950,     0.000,   7,1.0000
 13171,'1 ',     3.061,     0.000,     0.000,     0.000,1.05000,  1311,    10.000,   0.00900,   0.14800,   0.00000,   0.00000,1.00000,1,    6.0,    10.000,     0.000,   7,1.0000
 13173,'DW',     2.602,     0.000,     0.000,     0.000,1.05000,  1311,    10.500,   0.00900,   0.14800,   0.00000,   0.00000,1.00000,1,    6.0,     8.500,     0.000,   7,1.0000
 13174,'DW',    10.974,     0.000,     0.000,     0.000,1.05000,  1311,    36.000,   0.02570,   0.73700,   0.00000,   0.00000,1.00000,1,   11.0,    35.850,     0.000,   7,1.0000
 13175,'DW',     3.520,     0.000,     0.000,     0.000,1.05000,  1311,    11.500,   0.02570,   0.73700,   0.00000,   0.00000,1.00000,1,    3.7,    11.500,     0.000,   7,1.0000
 13176,'DW',     5.510,     0.000,     0.000,     0.000,1.05000,  1311,    18.750,   0.00900,   0.16600,   0.00000,   0.00000,1.00000,1,    5.6,    18.000,     0.000,   7,1.0000
 13434,'10',     4.300,     0.000,     0.000,     0.000,1.00000,     0,     4.500,   0.00000,   0.20000,   0.00000,   0.10000,1.00000,1,    1.0,     4.300,     0.000,   1,1.0000
 13471,'1 ',     0.202,     0.000,     0.000,     0.000,1.05000,  1341,     0.660,   0.02040,   0.33060,   0.00000,   0.00000,1.00000,1,    0.2,     0.660,     0.000,   7,1.0000
 13472,'DW',     0.781,     0.000,     0.000,    -0.840,1.05000,  1341,     2.700,   0.03020,   0.86600,   0.00000,   0.00000,1.00000,1,    0.8,     2.550,     0.000,   7,1.0000
 13473,'4 ',     3.061,     0.000,     0.000,     0.000,1.05000,  1341,    10.000,   0.00320,   0.12400,   0.00000,   0.00000,1.00000,1,    4.7,    10.000,     0.000,   7,1.0000
 13474,'5 ',     1.837,     0.000,     0.000,     0.000,1.05000,  1341,     6.250,   0.00900,   0.16600,   0.00000,   0.00000,1.00000,1,    1.9,     6.000,     0.000,   7,1.0000
 13475,'6 ',     2.342,     0.000,     0.000,     0.000,1.05000,  1341,     7.650,   0.00730,   0.13500,   0.00000,   0.00000,1.00000,1,    2.4,     7.650,     0.000,   7,1.0000
 13476,'3 ',     3.643,     0.000,     0.000,     0.000,1.05000,  1341,    11.500,   0.02570,   0.73700,   0.00000,   0.00000,1.00000,1,    3.7,    11.900,     0.000,   7,1.0000
 13477,'2 ',     0.781,     0.000,     0.000,     0.000,1.05000,  1341,     2.700,   0.03020,   0.86600,   0.00000,   0.00000,1.00000,1,    0.8,     2.550,     0.000,   7,1.0000
 13479,'9 ',     1.041,     0.000,     0.000,     0.000,1.00000,     0,     3.400,   0.00730,   0.13500,   0.00000,   0.00000,1.00000,1,    1.1,     3.400,     0.000,   7,1.0000
 14073,'3 ',     1.974,    -2.400,    -2.400,    -2.400,1.04000,     0,     7.611,   0.02040,   0.33060,   0.00000,   0.00000,1.00000,1,    2.0,     6.450,     0.000,   7,1.0000
 14075,'1 ',    10.000,     0.000,     0.000,     0.000,1.00000,     0,    10.000,   0.00000,   0.15500,   0.00000,   0.00000,1.00000,0,    3.0,    10.000,     1.000,   1,1.0000
 14471,'1 ',     1.224,     0.000,     0.000,     0.000,1.04000,     0,     4.000,   0.00320,   0.12400,   0.00000,   0.00000,1.00000,1,    1.4,     4.000,     0.000,   7,1.0000
 14472,'1 ',     0.085,     0.000,     0.000,     0.000,1.00000,     0,     0.850,   0.00210,   0.08600,   0.00000,   0.00000,1.00000,1,    0.1,     0.850,     0.000,   1,1.0000
 14604,'1 ',     4.800,     0.000,     0.000,     0.000,1.05000,     0,     7.000,   0.00000,   0.15000,   0.00000,   0.10000,1.00000,0,    2.0,     4.800,     0.000,   5,1.0000
 14871,'1 ',     0.520,     0.000,     0.000,     0.000,1.05000,     0,     4.600,   0.02570,   0.73700,   0.00000,   0.00000,1.00000,1,    0.5,     1.700,     0.000,   7,1.0000
 14902,'OH',   450.000,     0.000,   279.000,  -178.000,1.07500,  3522,   540.000,   0.00000,   0.32770,   0.00000,   0.00000,1.00000,0,  279.0,   450.000,   225.000,   4,1.0000
 15171,'TW',    14.081,    -0.465,    15.120,   -15.120,1.05000,  1511,    46.000,   0.00900,   0.14800,   0.00000,   0.00000,1.00000,1,   15.3,    46.000,     0.000,   7,1.0000
 15172,'DW',     3.061,    -3.290,     3.290,    -3.290,1.00000,     0,    10.000,   0.00900,   0.14800,   0.00000,   0.00000,1.00000,1,    3.1,    10.000,     0.000,   7,1.0000
 15173,'DW',     0.781,    -0.840,     0.840,    -0.840,1.00000,     0,     2.550,   0.00730,   0.13500,   0.00000,   0.00000,1.00000,1,    0.8,     2.550,     0.000,   7,1.0000
 15174,'DW',     6.122,    -6.570,     6.570,    -6.570,1.00000,     0,    20.000,   0.00900,   0.14800,   0.00000,   0.00000,1.00000,1,    6.2,    20.000,     0.000,   7,1.0000
 15571,'DW',     1.821,    -1.960,     1.960,    -1.960,1.00000,     0,     5.950,   0.00730,   0.13500,   0.00000,   0.00000,1.00000,1,    1.9,     5.950,     0.000,   7,1.0000
 15572,'DW',     5.510,    -3.430,     5.920,    -5.920,1.00000,     0,    18.750,   0.00900,   0.16600,   0.00000,   0.00000,1.00000,1,    5.6,    18.000,     0.000,   7,1.0000
 15573,'1 ',     6.122,     0.000,     0.000,     0.000,1.04000,     0,    23.000,   0.02570,   0.73700,   0.00000,   0.00000,1.00000,1,    6.2,    20.000,     0.000,   7,1.0000
 15771,'1 ',     0.606,    -0.300,    -0.300,    -0.300,1.04000,  3581,     1.980,   0.02040,   0.33060,   0.00000,   0.00000,1.00000,1,    1.5,     1.980,     0.000,   7,1.0000
 15772,'1 ',     0.918,    -1.920,    -1.920,    -1.920,1.04000,  3581,     3.000,   0.02040,   0.33060,   0.00000,   0.00000,1.00000,1,    1.5,     3.000,     0.000,   7,1.0000
 16371,'1 ',     1.041,     0.000,     0.000,     0.000,1.00000,     0,     3.400,   0.00730,   0.13500,   0.00000,   0.00000,1.00000,1,    1.1,     3.400,     0.000,   7,1.0000
 16372,'2 ',     1.041,     0.000,     0.000,     0.000,1.00000,     0,     3.400,   0.00730,   0.13500,   0.00000,   0.00000,1.00000,1,    1.1,     3.400,     0.000,   7,1.0000
 16373,'3 ',     2.081,     0.000,     0.000,     0.000,1.00000,     0,     6.800,   0.00730,   0.13500,   0.00000,   0.00000,1.00000,1,    2.1,     6.800,     0.000,   7,1.0000
 16374,'4 ',     2.342,     0.000,     0.000,     0.000,1.00000,     0,     7.650,   0.00210,   0.08600,   0.00000,   0.00000,1.00000,1,    2.4,     7.650,     0.000,   7,1.0000
 16375,'1 ',     1.212,     0.000,     0.000,     0.000,1.00000,     0,     4.250,   0.00210,   0.08600,   0.00000,   0.00000,1.00000,1,    1.3,     3.960,     0.000,   7,1.0000
 16376,'6 ',     1.515,     0.000,     0.000,     0.000,1.00000,     0,     5.100,   0.00210,   0.08600,   0.00000,   0.00000,1.00000,1,    1.5,     4.950,     0.000,   7,1.0000
 16377,'1 ',     2.755,     0.000,     0.000,     0.000,1.00000,     0,     9.200,   0.02570,   0.73700,   0.00000,   0.00000,1.00000,1,    3.0,     9.000,     0.000,   7,1.0000
 16378,'1 ',     0.490,     0.000,     0.000,     0.000,1.00000,     0,     1.700,   0.00210,   0.08600,   0.00000,   0.00000,1.00000,1,    0.5,     1.600,     0.000,   7,1.0000
 16379,'2 ',     0.089,     0.000,     0.000,     0.000,1.00000,     0,     0.323,   0.00320,   0.12400,   0.00000,   0.00000,1.00000,1,    1.3,     0.290,     0.000,   7,1.0000
 16571,'1 ',    11.571,     0.000,     0.000,     0.000,1.05000,  1651,    40.000,   0.02570,   0.73700,   0.00000,   0.00000,1.00000,1,   12.6,    37.800,     0.000,   7,1.0000
 16670,'1 ',     1.377,    -1.383,     0.000,    -3.070,1.00000,     0,     4.500,   0.03020,   0.86600,   0.00000,   0.00000,1.00000,1,    2.9,     4.500,     0.000,   7,1.0000
 16671,'1 ',     1.041,     0.000,     0.000,     0.000,1.04000,     0,     3.400,   0.00730,   0.13500,   0.00000,   0.00000,1.00000,1,    1.1,     3.400,     0.000,   7,1.0000
 16672,'2 ',     0.487,    -0.560,    -0.560,    -0.560,1.04000,     0,     1.700,   0.00730,   0.13500,   0.00000,   0.00000,1.00000,1,    0.5,     1.590,     0.000,   7,1.0000
 16674,'1 ',     5.724,     0.000,     0.000,     0.000,1.04000,     0,    18.700,   0.00730,   0.13500,   0.00000,   0.00000,1.00000,1,    5.8,    18.700,     0.000,   7,1.0000
 16675,'2 ',     2.449,    -2.650,    -2.650,    -2.650,1.04000,     0,     8.000,   0.02690,   0.76900,   0.00000,   0.00000,1.00000,1,    2.7,     8.000,     0.000,   7,1.0000
 16677,'1 ',     1.041,     0.000,     0.000,     0.000,1.00000,     0,     3.400,   0.00210,   0.08600,   0.00000,   0.00000,1.00000,1,    1.1,     3.400,     0.000,   7,1.0000
 16679,'3 ',     1.041,     0.000,     0.000,     0.000,1.00000,     0,     3.400,   0.00210,   0.08600,   0.00000,   0.00000,1.00000,1,    1.1,     3.400,     0.000,   7,1.0000
 16873,'3 ',     8.000,     7.000,     7.000,    -1.000,1.05000,  1681,    11.500,   0.00000,   0.25000,   0.00000,   0.00000,1.00000,1,    7.0,     8.000,     2.000,   3,1.0000
 17073,'3 ',    22.500,    -2.483,    23.000,   -25.000,1.05000,  1701,    35.500,   0.00410,   0.18000,   0.00000,   0.00000,1.00000,1,    7.0,    22.500,     5.000,   3,1.0000
 17074,'4 ',    22.500,    -2.483,    23.000,   -25.000,1.05000,  1701,    35.500,   0.00410,   0.18000,   0.00000,   0.00000,1.00000,1,    7.0,    22.500,     5.000,   3,1.0000
 17075,'7 ',     0.606,    -0.800,    -0.800,    -0.800,1.00000,     0,     1.980,   0.02040,   0.33060,   0.00000,   0.00000,1.00000,1,    0.6,     1.980,     0.000,   7,1.0000
 17077,'8 ',     0.006,     0.000,     0.000,     0.000,1.00000,     0,     1.200,   0.03020,   0.86600,   0.00000,   0.00000,1.00000,1,    0.3,     0.020,     0.000,   7,1.0000
 17671,'1 ',    10.000,    -2.483,     7.000,    -3.000,1.05000,  1701,    12.500,   0.00000,   0.15000,   0.00000,   0.00000,1.00000,1,    7.0,    10.000,     3.000,   3,1.0000
 17672,'2 ',    10.000,    -2.483,     7.000,    -3.000,1.05000,  1701,    12.500,   0.00000,   0.13500,   0.00000,   0.00000,1.00000,1,    7.0,    10.000,     3.000,   3,1.0000
 18271,'DW',     1.301,    -1.000,    -1.000,    -1.000,1.00000,     0,     4.250,   0.00730,   0.13500,   0.00000,   0.00000,1.00000,1,    1.2,     4.250,     0.000,   7,1.0000
 18471,'1 ',     1.527,     0.000,     0.000,     0.000,1.04000,     0,     5.200,   0.00550,   0.14300,   0.00000,   0.00000,1.00000,1,    1.5,     4.990,     0.000,   7,1.0000
 18472,'DW',     0.765,    -0.820,     0.000,    -0.820,1.00000,     0,     2.978,   0.00220,   0.41940,   0.00000,   0.00000,1.00000,1,    0.8,     2.500,     0.000,   7,1.0000
 18901,'OH',    58.000,     0.000,    30.000,   -21.320,1.07500,  1891,    68.235,   0.00000,   0.17000,   0.00000,   0.00000,1.00000,0,   30.0,    58.000,    20.000,   1,1.0000
 19081,'1 ',     0.781,     0.000,     0.000,     0.000,1.04000,     0,     2.550,   0.00730,   0.13500,   0.00000,   0.00000,1.00000,1,    0.8,     2.550,     0.000,   7,1.0000
 19082,'2 ',     0.520,     0.000,     0.000,     0.000,1.05000,     0,     1.700,   0.00730,   0.13500,   0.00000,   0.00000,1.00000,1,    0.5,     1.700,     0.000,   7,1.0000
 19083,'1 ',     1.527,     0.000,     0.000,     0.000,1.04000,     0,     6.900,   0.02570,   0.73700,   0.00000,   0.00000,1.00000,1,    1.6,     4.990,     0.000,   7,1.0000
 19084,'2 ',     1.377,    -1.500,    -1.500,    -1.500,1.04000,     0,     4.600,   0.02570,   0.73700,   0.00000,   0.00000,1.00000,1,    1.6,     4.500,     0.000,   7,1.0000
 19085,'1 ',     6.428,    -7.000,    -7.000,    -7.000,1.04000,     0,    23.824,   0.00220,   0.41940,   0.00000,   0.00000,1.00000,1,    6.6,    21.000,     0.000,   7,1.0000
 19101,'OH',    98.400,     0.000,    51.000,   -36.170,1.07500,  1911,   108.240,   0.00000,   0.14400,   0.00279,   0.11997,1.00000,0,   51.0,    98.400,    34.000,   1,1.0000
 19317,'SC',     0.000,    -6.000,     6.000,    -6.000,1.05000,  1931,     6.000,   0.00000,9999.00000,   0.00000,   0.00000,1.00000,1,    6.0,     0.000,     0.000,   1,1.0000
 19371,'1 ',     7.270,     0.000,     0.000,     0.000,1.05000,  1931,    29.780,   0.00220,   0.41940,   0.00000,   0.00000,1.00000,1,   11.0,    23.750,     0.000,   7,1.0000
 19372,'2 ',     3.382,     0.000,     0.000,     0.000,1.05000,  1931,    11.050,   0.00730,   0.13500,   0.00000,   0.00000,1.00000,1,   11.6,    11.050,     0.000,   7,1.0000
 19471,'1 ',   133.000,    76.570,    94.000,   -50.000,1.07500,  1941,   153.000,   0.00000,   0.15300,   0.00000,   0.00000,1.00000,1,   75.0,   133.500,    60.000,   4,1.0000
 19472,'5 ',    58.274,     0.000,    38.000,   -23.000,1.07500,  1941,    66.625,   0.00200,   0.14450,   0.00000,   0.00000,1.00000,0,   41.0,    58.274,    19.700,   1,1.0000
 19473,'3 ',    58.274,     0.000,    40.000,   -23.000,1.07500,  1941,    66.625,   0.00200,   0.14450,   0.00000,   0.00000,1.00000,0,   41.0,    58.274,    19.700,   1,1.0000
 19601,'2 ',     0.585,     0.000,     0.000,     0.000,1.00000,     0,     6.500,   0.00000,   0.21900,   0.00000,   0.00000,1.00000,1,  100.0,     5.850,     0.000,   2,1.0000
 19771,'1 ',    13.009,     0.000,     0.000,     0.000,1.05000,  1971,    46.875,   0.00900,   0.16600,   0.00000,   0.00000,1.00000,1,    8.5,    42.500,     0.000,   7,1.0000
 19772,'TW',     2.602,    -1.271,     2.790,    -2.790,1.05000,  1971,     8.500,   0.00730,   0.13500,   0.00000,   0.00000,1.00000,1,    2.8,     8.500,     0.000,   7,1.0000
 19773,'TW',     9.183,    -4.475,     9.860,    -9.860,1.05000,  1971,    38.714,   0.00220,   0.41940,   0.00000,   0.00000,1.00000,1,    9.9,    30.000,     0.000,   7,1.0000
 19971,'1 ',     6.122,    -6.700,     6.700,    -6.700,1.05000,  1991,    20.700,   0.02570,   0.73700,   0.00000,   0.00000,1.00000,1,    6.7,    20.000,     0.000,   7,1.0000
 19972,'2 ',     0.704,     0.000,     0.000,     0.000,1.05000,  1991,     2.300,   0.02570,   0.73700,   0.00000,   0.00000,1.00000,1,    0.7,     2.300,     0.000,   7,1.0000
 19973,'3 ',     0.704,     0.000,     0.000,     0.000,1.05000,  1991,     2.300,   0.02570,   0.73700,   0.00000,   0.00000,1.00000,1,    1.1,     2.300,     0.000,   7,1.0000
 19974,'4 ',     4.928,    -4.000,     4.000,    -4.000,1.05000,  1991,    16.100,   0.02570,   0.73700,   0.00000,   0.00000,1.00000,1,    4.0,    16.100,     0.000,   7,1.0000
 20101,'OH',    35.000,     0.000,    21.000,   -14.000,1.07500,  2011,    41.200,   0.00000,   0.18000,   0.00000,   0.00000,1.00000,0,   21.0,    35.000,   -38.000,   1,1.0000
 21071,'2 ',     0.153,     0.000,     0.000,     0.000,1.05000,     0,     0.850,   0.00730,   0.13500,   0.00000,   0.00000,1.00000,1,    0.2,     0.500,     0.000,   7,1.0000
 21371,'TW',     8.724,    -5.338,     9.500,    -9.500,1.05000,  2131,    31.730,   0.00920,   0.16210,   0.00000,   0.00000,1.00000,1,    9.5,    28.500,     0.000,   7,1.0000
 21372,'2 ',     5.357,    -3.259,     5.800,    -5.800,1.05000,  2131,    23.380,   0.00920,   0.16210,   0.00000,   0.00000,1.00000,1,    5.8,    17.500,     0.000,   7,1.0000
 21871,'1 ',     0.520,     0.000,     0.000,     0.000,1.01000,     0,     1.700,   0.00730,   0.13500,   0.00000,   0.00000,1.00000,1,    0.5,     1.700,     0.000,   7,1.0000
 21872,'2 ',     0.765,    -0.990,    -0.990,    -1.280,1.01000,     0,     2.700,   0.03020,   0.86600,   0.00000,   0.00000,1.00000,1,    0.9,     2.500,     0.000,   7,1.0000
 21873,'1 ',     1.274,     0.000,     0.000,     0.000,1.00000,     0,     1.600,   0.02040,   0.33060,   0.00000,   0.00000,1.00000,0,  100.0,     1.274,     0.000,   1,1.0000
 21875,'1 ',     3.000,     0.000,     0.000,     0.000,1.00000,     0,     3.780,   0.00000,   0.15000,   0.00000,   0.00000,1.00000,1,  100.0,     3.000,     0.000,   1,1.0000
 22272,'DW',     5.204,    -4.136,     0.000,    -5.590,1.00000,     0,    16.000,   0.00900,   0.14800,   0.00000,   0.00000,1.00000,1,    5.3,    17.000,     0.000,   7,1.0000
 22273,'DW',     1.377,    -1.061,     0.000,    -1.480,1.00000,     0,     4.000,   0.02690,   0.76900,   0.00000,   0.00000,1.00000,1,    1.4,     4.500,     0.000,   7,1.0000
 22274,'2 ',     1.818,    -2.400,    -2.400,    -2.400,1.00000,     0,     5.940,   0.02040,   0.33060,   0.00000,   0.00000,1.00000,1,    1.9,     5.940,     0.000,   7,1.0000
 22275,'4 ',     1.301,     0.000,     0.000,     0.000,1.00000,     0,     4.250,   0.00730,   0.13500,   0.00000,   0.00000,1.00000,1,    1.3,     4.250,     0.000,   7,1.0000
 22276,'3 ',     1.821,     0.000,     0.000,     0.000,1.00000,     0,     6.680,   0.00920,   0.16210,   0.00000,   0.00000,1.00000,1,    1.9,     5.950,     0.000,   7,1.0000
 22277,'DW',     0.934,    -0.990,     0.000,    -0.990,1.00000,     0,     3.340,   0.00920,   0.16210,   0.00000,   0.00000,1.00000,1,    0.9,     3.050,     0.000,   7,1.0000
 22278,'1 ',     1.414,    -1.000,    -1.000,    -1.000,1.00000,     0,     4.620,   0.02040,   0.33060,   0.00000,   0.00000,1.00000,1,    1.4,     4.620,     0.000,   7,1.0000
 22292,'5 ',     6.000,     0.000,     0.000,     0.000,1.00000,     0,     6.000,   0.00000,   0.20000,   0.00000,   0.10000,1.00000,0,    2.0,     6.000,     0.000,   1,1.0000
 22371,'1 ',    18.213,     0.000,     0.000,     0.000,1.05000,  2231,    59.500,   0.00730,   0.13500,   0.00000,   0.00000,1.00000,1,   12.0,    59.500,     0.000,   7,1.0000
 22471,'1 ',     0.781,     0.000,     0.000,     0.000,1.04000,     0,     2.550,   0.00730,   0.13500,   0.00000,   0.00000,1.00000,1,    0.8,     2.550,     0.000,   7,1.0000
 22472,'2 ',     1.301,     0.000,     0.000,     0.000,1.04000,     0,     4.250,   0.00730,   0.13500,   0.00000,   0.00000,1.00000,1,    1.3,     4.250,     0.000,   7,1.0000
 22473,'1 ',     1.301,    -1.500,    -1.500,    -1.500,1.01000,     0,     4.250,   0.00730,   0.13500,   0.00000,   0.00000,1.00000,1,    1.3,     4.250,     0.000,   7,1.0000
...